9
Properties=species:S:1:pos:R:3:forces:R:3 energy=-504.75539880507426 pbc="F F F"
C       -1.31180000       0.00791100       0.03195100       0.11507400      -0.04331641       0.01298376
C        0.17396900      -0.03116600       0.02107600      -0.78233910       0.40803649      -0.28507967
N        0.90716500      -0.90183300       0.64560500       0.73096897       0.28831179      -0.23510479
O        2.17285300      -0.54960900       0.34537700      -0.05548509       0.03742321      -0.02356448
N        2.15838300       0.54406900      -0.46705600      -0.91961352      -0.28286361       0.23927327
N        0.96356100       0.86771300      -0.67129700       0.50092575      -0.45297308       0.32521109
H       -1.66526600       0.95144200       0.45677800       0.14056876      -0.11605771      -0.08753999
H       -1.69759400      -0.06712200      -0.98825900       0.13183502       0.04510477       0.13096434
H       -1.70171400      -0.82112800       0.62509000       0.13806522       0.11633456      -0.07714355
9
Properties=species:S:1:pos:R:3:forces:R:3 energy=-502.95240462279423 pbc="F F F"
C       -1.00967200      -0.01564000      -0.06772400      -0.12714032       0.06160480      -0.00799195
C        0.48221300       0.03210400       0.01536200       2.23654806       1.60617972      -0.59707153
N        1.29327900      -0.98149700       0.51611900      -1.17830078       0.49127903      -0.30325778
O        0.65689900      -1.95647300       0.89311600       0.16117777      -0.72695712       0.34111904
N        1.77331800       1.96050900      -0.75690800      -0.06323923      -0.19465326       0.08464518
N        1.17326000       1.07305700      -0.40199500      -1.42825204      -1.15002208       0.41972794
H       -1.43366100       0.94306600      -0.37632100       0.18515614      -0.14448103       0.05295711
H       -1.32729300      -0.78860000      -0.77451100       0.12794105       0.06021616       0.07054648
H       -1.41046100      -0.28714800       0.91265300       0.08610935      -0.00316621      -0.06067451
9
Properties=species:S:1:pos:R:3:forces:R:3 energy=-502.0448365953745 pbc="F F F"
C       -1.16227464       0.03574439       0.01037207      -1.91082348       0.43601286       0.22472327
C        0.28489124       0.00095810      -0.03141391      -1.34329074       0.60709685       2.04174269
N        0.89518889      -0.94213330       0.83540512      -1.66944571       0.48169679      -2.08867809
O        1.76299576      -1.50686881       0.24140647       2.85679408      -1.64797270       0.79385631
N        2.06194646       1.34164371      -0.61920607      -0.15476862       0.87393202      -0.50937495
N        0.99688677       0.93183531      -0.50445207       1.72619989      -0.65781246      -0.34300895
H       -1.58605113       1.01852710      -0.09588845       0.08246776       0.75853907      -0.10758220
H       -1.63784291      -0.53952012      -0.76601438       0.14326386      -0.51066995      -0.56468393
H       -1.59053504      -0.34260700       0.92428799       0.26960297      -0.34082248       0.55300584
9
Properties=species:S:1:pos:R:3:forces:R:3 energy=-503.22077704133807 pbc="F F F"
C       -1.30448238       0.06801486       0.02370984       0.47693945      -0.06425272       0.30528566
C        0.19254047       0.01422585       0.10058014       1.59788896      -0.35814667      -0.86714771
N        0.85278856      -1.09081030       0.53735685      -0.31257884       1.65398985      -0.67070675
O        2.06730333      -1.19874373       0.42999619       0.02261135      -0.18766199       0.22026720
N        2.14582088       1.14080620      -0.68187640       0.27195511      -0.75882072       0.24468267
N        1.05566800       0.89156659      -0.49088273      -2.22003547      -0.36862909       0.74818850
H       -1.66726129       1.10719273       0.02650416       0.16446513      -0.50237004      -0.00921453
H       -1.67673157      -0.46586598      -0.86875613       0.18520798       0.33284924       0.36493550
H       -1.64625654      -0.46717482       0.91940667      -0.18645366       0.25304213      -0.33629054
9
Properties=species:S:1:pos:R:3:forces:R:3 energy=-501.7317756803008 pbc="F F F"
C       -1.12825782       0.05172191      -0.00284551      -0.16449174       0.07009249      -0.03078474
C        0.36941454       0.02287475      -0.06730941       1.61159125       0.84721016       0.64402037
N        1.02675064      -1.05933000       0.86060011      -0.66262492       0.61458452      -1.77723032
O        1.33066950      -2.05482586       0.26867036       0.01694379       0.26490794       0.56673717
N        1.87861125       1.83781236      -0.70923086      -1.68142032      -1.98686886       0.56554342
N        1.12566288       1.00933505      -0.39803589       0.24061567       0.25124815       0.10212356
H       -1.50716691       0.97334286      -0.46211820       0.17815123      -0.23681454       0.08881330
H       -1.56603381      -0.80418292      -0.53826787       0.22209788       0.20096788       0.15816787
H       -1.48697925       0.01899386       1.03978727       0.23913717      -0.02532773      -0.31739063
9
Properties=species:S:1:pos:R:3:forces:R:3 energy=-502.9007650018562 pbc="F F F"
C       -1.17764219       0.11366173       0.03700157      -0.18869763       0.08733818       0.05093379
C        0.30765766      -0.05956265       0.11145646       1.42960864       0.22346522      -0.16506726
N        0.75926324      -1.27083995       0.63935668      -0.74257304       1.32747044      -0.95976223
O        1.84701216      -1.69235769       0.30182523       0.83713468      -0.48870765       0.36756189
N        1.84591903       1.63554501      -0.74542368       0.21457996      -0.33341160       0.23229117
N        1.13199485       0.83106506      -0.39755689      -1.86983101      -0.91817070       0.36804006
H       -1.44441108       1.05003457      -0.45264636       0.09258863      -0.04220410       0.08238024
H       -1.61553648      -0.71138397      -0.53458748       0.11396434       0.12869024       0.09740174
H       -1.62030443       0.09453250       1.03490948       0.11322544       0.01552996      -0.07377938
9
Properties=species:S:1:pos:R:3:forces:R:3 energy=-503.6495491761571 pbc="F F F"
C       -1.25198859       0.02076809       0.02468014      -1.13953341       0.17545865       0.17545027
C        0.19740979      -0.02402842       0.01248560      -1.11715213      -0.06025412       1.13100764
N        0.87801948      -0.93340499       0.69472191       0.36745314       1.29298824      -3.34649933
O        2.06901428      -0.87096034       0.32001655       1.93805211       0.91376025       1.45625640
N        2.13900782       0.81151990      -0.51837571      -0.57552364      -2.12197064      -0.07938417
N        0.96548128       0.90659046      -0.61736049       0.39652766      -0.31650968       0.79774188
H       -1.64094014       0.99270524       0.26962678      -0.01435234       0.62126634       0.11444211
H       -1.68102993      -0.23546213      -0.92998277       0.04570141      -0.15097381      -0.54386842
H       -1.66623709      -0.66842859       0.74174613       0.09882719      -0.35376523       0.29485362
9
Properties=species:S:1:pos:R:3:forces:R:3 energy=-502.7037547254084 pbc="F F F"
C       -1.10126474       0.02730752       0.01065865       0.02066839       0.05229725      -0.08982572
C        0.40276719       0.00744252       0.06537064       2.00946620       1.51546261      -0.28701517
N        1.33285316      -0.96453001       0.48952515      -0.88730325       0.43603274      -0.79102100
O        0.96309002      -2.12267441       0.42827047      -0.25439842      -0.71236211       0.51018205
N        1.79645341       1.87285343      -0.67992774      -0.48443529      -0.48263632       0.17761067
N        1.10094262       1.05764337      -0.31602524      -1.01981796      -0.52755377       0.48660893
H       -1.44682172       0.93634415      -0.49512054       0.16637129      -0.20945108       0.08583421
H       -1.49879555      -0.83654300      -0.52758673       0.20767437       0.00411048       0.08624269
H       -1.53005819       0.02284349       1.02160434       0.24177468      -0.07589981      -0.17861666
